instances/data_GOC/Phase_0_RTS96/scenario_17/powersystem.raw
 0,  100.000000
rts96_spring_wday.raw / File written by to_psse.gms
5 / 19 / 2015
101, ' 101 ',138,2,1,1,1,1.00,0.00,1.1,0.9,1.1,0.9
102, ' 102 ',138,2,1,1,1,1.00,0.00,1.1,0.9,1.1,0.9
103, ' 103 ',138,1,1,1,1,1.00,0.00,1.1,0.9,1.1,0.9
104, ' 104 ',138,1,1,1,1,1.00,0.00,1.1,0.9,1.1,0.9
105, ' 105 ',138,1,1,1,1,1.00,0.00,1.1,0.9,1.1,0.9
106, ' 106 ',138,1,1,1,1,1.00,0.00,1.1,0.9,1.1,0.9
107, ' 107 ',138,2,1,1,1,1.00,0.00,1.1,0.9,1.1,0.9
108, ' 108 ',138,1,1,1,1,1.00,0.00,1.1,0.9,1.1,0.9
109, ' 109 ',138,1,1,1,1,1.00,0.00,1.1,0.9,1.1,0.9
110, ' 110 ',138,1,1,1,1,1.00,0.00,1.1,0.9,1.1,0.9
111, ' 111 ',230,1,1,1,1,1.00,0.00,1.1,0.9,1.1,0.9
112, ' 112 ',230,1,1,1,1,1.00,0.00,1.1,0.9,1.1,0.9
113, ' 113 ',230,3,1,1,1,1.00,0.00,1.1,0.9,1.1,0.9
114, ' 114 ',230,2,1,1,1,1.00,0.00,1.1,0.9,1.1,0.9
115, ' 115 ',230,2,1,1,1,1.00,0.00,1.1,0.9,1.1,0.9
116, ' 116 ',230,2,1,1,1,1.00,0.00,1.1,0.9,1.1,0.9
117, ' 117 ',230,1,1,1,1,1.00,0.00,1.1,0.9,1.1,0.9
118, ' 118 ',230,2,1,1,1,1.00,0.00,1.1,0.9,1.1,0.9
119, ' 119 ',230,1,1,1,1,1.00,0.00,1.1,0.9,1.1,0.9
120, ' 120 ',230,1,1,1,1,1.00,0.00,1.1,0.9,1.1,0.9
121, ' 121 ',230,2,1,1,1,1.00,0.00,1.1,0.9,1.1,0.9
122, ' 122 ',230,2,1,1,1,1.00,0.00,1.1,0.9,1.1,0.9
123, ' 123 ',230,2,1,1,1,1.00,0.00,1.1,0.9,1.1,0.9
124, ' 124 ',230,1,1,1,1,1.00,0.00,1.1,0.9,1.1,0.9
201, ' 201 ',138,2,1,1,1,1.00,0.00,1.1,0.9,1.1,0.9
202, ' 202 ',138,2,1,1,1,1.00,0.00,1.1,0.9,1.1,0.9
203, ' 203 ',138,1,1,1,1,1.00,0.00,1.1,0.9,1.1,0.9
204, ' 204 ',138,1,1,1,1,1.00,0.00,1.1,0.9,1.1,0.9
205, ' 205 ',138,1,1,1,1,1.00,0.00,1.1,0.9,1.1,0.9
206, ' 206 ',138,1,1,1,1,1.00,0.00,1.1,0.9,1.1,0.9
207, ' 207 ',138,2,1,1,1,1.00,0.00,1.1,0.9,1.1,0.9
208, ' 208 ',138,1,1,1,1,1.00,0.00,1.1,0.9,1.1,0.9
209, ' 209 ',138,1,1,1,1,1.00,0.00,1.1,0.9,1.1,0.9
210, ' 210 ',138,1,1,1,1,1.00,0.00,1.1,0.9,1.1,0.9
211, ' 211 ',230,1,1,1,1,1.00,0.00,1.1,0.9,1.1,0.9
212, ' 212 ',230,1,1,1,1,1.00,0.00,1.1,0.9,1.1,0.9
213, ' 213 ',230,2,1,1,1,1.00,0.00,1.1,0.9,1.1,0.9
214, ' 214 ',230,2,1,1,1,1.00,0.00,1.1,0.9,1.1,0.9
215, ' 215 ',230,2,1,1,1,1.00,0.00,1.1,0.9,1.1,0.9
216, ' 216 ',230,2,1,1,1,1.00,0.00,1.1,0.9,1.1,0.9
217, ' 217 ',230,1,1,1,1,1.00,0.00,1.1,0.9,1.1,0.9
218, ' 218 ',230,2,1,1,1,1.00,0.00,1.1,0.9,1.1,0.9
219, ' 219 ',230,1,1,1,1,1.00,0.00,1.1,0.9,1.1,0.9
220, ' 220 ',230,1,1,1,1,1.00,0.00,1.1,0.9,1.1,0.9
221, ' 221 ',230,2,1,1,1,1.00,0.00,1.1,0.9,1.1,0.9
222, ' 222 ',230,2,1,1,1,1.00,0.00,1.1,0.9,1.1,0.9
223, ' 223 ',230,2,1,1,1,1.00,0.00,1.1,0.9,1.1,0.9
224, ' 224 ',230,1,1,1,1,1.00,0.00,1.1,0.9,1.1,0.9
301, ' 301 ',138,2,1,1,1,1.00,0.00,1.1,0.9,1.1,0.9
302, ' 302 ',138,2,1,1,1,1.00,0.00,1.1,0.9,1.1,0.9
303, ' 303 ',138,1,1,1,1,1.00,0.00,1.1,0.9,1.1,0.9
304, ' 304 ',138,1,1,1,1,1.00,0.00,1.1,0.9,1.1,0.9
305, ' 305 ',138,1,1,1,1,1.00,0.00,1.1,0.9,1.1,0.9
306, ' 306 ',138,1,1,1,1,1.00,0.00,1.1,0.9,1.1,0.9
307, ' 307 ',138,2,1,1,1,1.00,0.00,1.1,0.9,1.1,0.9
308, ' 308 ',138,1,1,1,1,1.00,0.00,1.1,0.9,1.1,0.9
309, ' 309 ',138,1,1,1,1,1.00,0.00,1.1,0.9,1.1,0.9
310, ' 310 ',138,1,1,1,1,1.00,0.00,1.1,0.9,1.1,0.9
311, ' 311 ',230,1,1,1,1,1.00,0.00,1.1,0.9,1.1,0.9
312, ' 312 ',230,1,1,1,1,1.00,0.00,1.1,0.9,1.1,0.9
313, ' 313 ',230,2,1,1,1,1.00,0.00,1.1,0.9,1.1,0.9
314, ' 314 ',230,2,1,1,1,1.00,0.00,1.1,0.9,1.1,0.9
315, ' 315 ',230,2,1,1,1,1.00,0.00,1.1,0.9,1.1,0.9
316, ' 316 ',230,2,1,1,1,1.00,0.00,1.1,0.9,1.1,0.9
317, ' 317 ',230,1,1,1,1,1.00,0.00,1.1,0.9,1.1,0.9
318, ' 318 ',230,2,1,1,1,1.00,0.00,1.1,0.9,1.1,0.9
319, ' 319 ',230,1,1,1,1,1.00,0.00,1.1,0.9,1.1,0.9
320, ' 320 ',230,1,1,1,1,1.00,0.00,1.1,0.9,1.1,0.9
321, ' 321 ',230,2,1,1,1,1.00,0.00,1.1,0.9,1.1,0.9
322, ' 322 ',230,2,1,1,1,1.00,0.00,1.1,0.9,1.1,0.9
323, ' 323 ',230,2,1,1,1,1.00,0.00,1.1,0.9,1.1,0.9
324, ' 324 ',230,1,1,1,1,1.00,0.00,1.1,0.9,1.1,0.9
325, ' 325 ',230,1,1,1,1,1.00,0.00,1.1,0.9,1.1,0.9
0 / END OF BUS DATA, BEGIN LOAD DATA
101, '1 ',1,11,11,70.14043007322604,12.372546037524193,0.0,0.0,0.0,0.0,1,1,0
102, '1 ',1,11,12,75.52120383792473,17.82042275631521,0.0,0.0,0.0,0.0,1,1,0
103, '1 ',1,11,11,158.24739285486473,27.12676369156153,0.0,0.0,0.0,0.0,1,1,0
104, '1 ',1,11,11,59.0826702556285,10.90682813163288,0.0,0.0,0.0,0.0,1,1,0
105, '1 ',1,11,11,36.501934998252665,9.644003318218141,0.0,0.0,0.0,0.0,1,1,0
106, '1 ',1,11,12,78.31941602801643,17.785258409896308,0.0,0.0,0.0,0.0,1,1,0
107, '1 ',1,11,12,69.2248884778528,17.843581854976946,0.0,0.0,0.0,0.0,1,1,0
108, '1 ',1,11,12,107.86685741601033,18.265153629923468,0.0,0.0,0.0,0.0,1,1,0
109, '1 ',1,11,13,146.65053909090815,31.52381474373881,0.0,0.0,0.0,0.0,1,1,0
110, '1 ',1,11,13,168.62438628093176,29.101922351142388,0.0,0.0,0.0,0.0,1,1,0
111, '1 ',1,11,13,0.0,0.0,0.0,0.0,0.0,0.0,1,1,0
112, '1 ',1,11,13,0.0,0.0,0.0,0.0,0.0,0.0,1,1,0
113, '1 ',1,12,14,163.4408141444747,37.018965985126975,0.0,0.0,0.0,0.0,1,1,0
114, '1 ',1,12,16,140.0670999683641,23.997296597398538,0.0,0.0,0.0,0.0,1,1,0
115, '1 ',1,12,16,253.82432882484449,51.77565142191946,0.0,0.0,0.0,0.0,1,1,0
116, '1 ',1,12,16,71.431054540677,15.420608385862781,0.0,0.0,0.0,0.0,1,1,0
117, '1 ',1,12,17,0.0,0.0,0.0,0.0,0.0,0.0,1,1,0
118, '1 ',1,12,17,168.94937526889623,42.32671245339196,0.0,0.0,0.0,0.0,1,1,0
119, '1 ',1,12,15,129.9534621778708,20.520020871021035,0.0,0.0,0.0,0.0,1,1,0
120, '1 ',1,12,15,67.3662274309337,15.581619327548147,0.0,0.0,0.0,0.0,1,1,0
121, '1 ',1,12,17,0.0,0.0,0.0,0.0,0.0,0.0,1,1,0
122, '1 ',1,12,17,0.0,0.0,0.0,0.0,0.0,0.0,1,1,0
123, '1 ',1,12,15,0.0,0.0,0.0,0.0,0.0,0.0,1,1,0
124, '1 ',1,12,16,0.0,0.0,0.0,0.0,0.0,0.0,1,1,0
201, '1 ',1,21,21,64.82695504333878,13.125107642814239,0.0,0.0,0.0,0.0,1,1,0
202, '1 ',1,21,22,58.45906061845017,14.52681210798025,0.0,0.0,0.0,0.0,1,1,0
203, '1 ',1,21,21,147.3670759632848,29.776390469625312,0.0,0.0,0.0,0.0,1,1,0
204, '1 ',1,21,21,49.9614024228598,7.794457723291357,0.0,0.0,0.0,0.0,1,1,0
205, '1 ',1,21,21,56.80326965626473,11.892412187366189,0.0,0.0,0.0,0.0,1,1,0
206, '1 ',1,21,22,80.59087305389419,13.629646907587722,0.0,0.0,0.0,0.0,1,1,0
207, '1 ',1,21,22,81.73794010324055,14.512494796608806,0.0,0.0,0.0,0.0,1,1,0
208, '1 ',1,21,22,119.12023119805484,24.232471733634593,0.0,0.0,0.0,0.0,1,1,0
209, '1 ',1,21,23,92.66326749570436,30.607638202280185,0.0,0.0,0.0,0.0,1,1,0
210, '1 ',1,21,23,153.21704658877312,28.846896795216946,0.0,0.0,0.0,0.0,1,1,0
211, '1 ',1,21,23,0.0,0.0,0.0,0.0,0.0,0.0,1,1,0
212, '1 ',1,21,23,0.0,0.0,0.0,0.0,0.0,0.0,1,1,0
213, '1 ',1,22,24,172.53159065592453,38.97668321552937,0.0,0.0,0.0,0.0,1,1,0
214, '1 ',1,22,26,161.37012821713714,24.63975132921143,0.0,0.0,0.0,0.0,1,1,0
215, '1 ',1,22,26,167.65940926346673,36.703222066086525,0.0,0.0,0.0,0.0,1,1,0
216, '1 ',1,22,26,79.58644362932536,15.080567935324272,0.0,0.0,0.0,0.0,1,1,0
217, '1 ',1,22,27,0.0,0.0,0.0,0.0,0.0,0.0,1,1,0
218, '1 ',1,22,27,276.62580308612667,37.49245290791038,0.0,0.0,0.0,0.0,1,1,0
219, '1 ',1,22,25,122.45428162746896,32.702058840721335,0.0,0.0,0.0,0.0,1,1,0
220, '1 ',1,22,25,115.08186913990974,14.585794890931249,0.0,0.0,0.0,0.0,1,1,0
221, '1 ',1,22,27,0.0,0.0,0.0,0.0,0.0,0.0,1,1,0
222, '1 ',1,22,27,0.0,0.0,0.0,0.0,0.0,0.0,1,1,0
223, '1 ',1,22,25,0.0,0.0,0.0,0.0,0.0,0.0,1,1,0
224, '1 ',1,22,26,0.0,0.0,0.0,0.0,0.0,0.0,1,1,0
301, '1 ',1,31,31,61.32326605575307,18.55705812384328,0.0,0.0,0.0,0.0,1,1,0
302, '1 ',1,31,32,70.34097136505284,12.922791029205545,0.0,0.0,0.0,0.0,1,1,0
303, '1 ',1,31,31,120.88602239338773,20.296189874967045,0.0,0.0,0.0,0.0,1,1,0
304, '1 ',1,31,31,50.59922877479586,10.764145431049167,0.0,0.0,0.0,0.0,1,1,0
305, '1 ',1,31,31,60.94666087807166,11.441531283558627,0.0,0.0,0.0,0.0,1,1,0
306, '1 ',1,31,32,108.27249808124677,14.715335116354376,0.0,0.0,0.0,0.0,1,1,0
307, '1 ',1,31,32,109.05334581504576,22.213815016929292,0.0,0.0,0.0,0.0,1,1,0
308, '1 ',1,31,32,127.39432559277027,17.31581746451603,0.0,0.0,0.0,0.0,1,1,0
309, '1 ',1,31,33,92.77328177925548,18.668072997714578,0.0,0.0,0.0,0.0,1,1,0
310, '1 ',1,31,33,155.66706182518533,31.946672161163765,0.0,0.0,0.0,0.0,1,1,0
311, '1 ',1,31,33,0.0,0.0,0.0,0.0,0.0,0.0,1,1,0
312, '1 ',1,31,33,0.0,0.0,0.0,0.0,0.0,0.0,1,1,0
313, '1 ',1,32,34,195.6150635312239,36.166455936102004,0.0,0.0,0.0,0.0,1,1,0
314, '1 ',1,32,36,99.38820940336855,21.288441083631618,0.0,0.0,0.0,0.0,1,1,0
315, '1 ',1,32,36,234.28318116712032,44.830406431934236,0.0,0.0,0.0,0.0,1,1,0
316, '1 ',1,32,36,69.52874874366448,17.803376555548983,0.0,0.0,0.0,0.0,1,1,0
317, '1 ',1,32,37,0.0,0.0,0.0,0.0,0.0,0.0,1,1,0
318, '1 ',1,32,37,172.3281410437129,39.65823285143394,0.0,0.0,0.0,0.0,1,1,0
319, '1 ',1,32,35,146.22145022957258,23.22841081738891,0.0,0.0,0.0,0.0,1,1,0
320, '1 ',1,32,35,84.51882315927743,13.718727544211223,0.0,0.0,0.0,0.0,1,1,0
321, '1 ',1,32,37,0.0,0.0,0.0,0.0,0.0,0.0,1,1,0
322, '1 ',1,32,37,0.0,0.0,0.0,0.0,0.0,0.0,1,1,0
323, '1 ',1,32,35,0.0,0.0,0.0,0.0,0.0,0.0,1,1,0
324, '1 ',1,32,36,0.0,0.0,0.0,0.0,0.0,0.0,1,1,0
325, '1 ',1,32,35,0.0,0.0,0.0,0.0,0.0,0.0,1,1,0
0 / END OF LOAD DATA, BEGIN FIXED SHUNT DATA
0 / END OF FIXED SHUNT DATA, BEGIN GENERATOR DATA
101,1,10,0,12.669988504610956,5.020106112118811,1.035,0,24,0,1,0,0,1,1,100,19.12826146464795,15.083226059554146,1,1,0,1
101,2,10,0,7.929566855542362,-2.40538009442389,1.035,0,24,0,1,0,0,1,1,100,14.789966797456145,11.768679821090773,1,1,0,1
101,3,76,14.1,30.3175802025944,-41.18041891418399,1.035,0,89,0,1,0,0,1,1,100,65.97083320021629,14.415354657620192,1,1,0,1
101,4,76,14.1,24.750700591597703,-45.381116174394265,1.035,0,89,0,1,0,0,1,1,100,69.94373397883028,18.889244960062214,1,1,0,1
102,5,10,0,12.03263807296753,0.6075667189434171,1.035,0,24,0,1,0,0,1,1,100,15.98093022685498,12.830080256555231,1,1,0,1
102,6,10,0,12.323466093279421,0.4456484243273735,1.035,0,24,0,1,0,0,1,1,100,16.262483855709434,11.12549210352823,1,1,0,1
102,7,76,7,38.143194997217506,-31.184685375075787,1.035,0,89,0,1,0,0,1,1,100,60.96085366234183,11.115530936399246,1,1,0,1
102,8,76,7,26.040984639432278,-20.42525348369963,1.035,0,89,0,1,0,0,1,1,100,90.19187895469368,37.33908355869353,1,1,0,1
107,9,80,17.2,49.395125180482864,-25.86053942330183,1.025,0,118,0,1,0,0,1,1,100,120.49700071103872,31.715797130018487,1,1,0,1
107,10,80,17.2,69.96055014431477,19.677007231861353,1.025,0,118,0,1,0,0,1,1,100,82.97906810417771,7.908236611401662,1,1,0,1
107,11,80,17.2,59.97464082855731,10.372198610566564,1.025,0,118,0,1,0,0,1,1,100,72.6680298661813,9.856041577877463,1,1,0,1
113,12,95.1,40.7,61.634242713451385,-20.59058939293027,1.02,0,232,0,1,0,0,1,1,100,209.287782563502,96.15734222984176,1,1,0,1
113,13,95.1,40.7,91.64899715408683,-3.392037682235241,1.02,0,232,0,1,0,0,1,1,100,160.74997924915513,4.8882658591214465,1,1,0,1
113,14,95.1,40.7,67.1317010037601,-28.718197591602802,1.02,0,232,0,1,0,0,1,1,100,248.94074046136814,96.59132950203727,1,1,0,1
114,15,0,13.7,170.8269463572651,-108.60781922703612,0.98,0,100,0,1,0,0,1,1,100,0.0,0.0,1,1,0,1
115,16,12,0,6.466710691060872,1.0322777274996042,1.014,0,14,0,1,0,0,1,1,100,10.82725751772523,1.7209076263010505,1,1,0,1
115,17,12,0,7.439818652998657,0.5765194513835015,1.014,0,14,0,1,0,0,1,1,100,9.458348708599805,8.744104523662026,1,1,0,1
115,18,12,0,4.6382550761103625,-2.64196885144338,1.014,0,14,0,1,0,0,1,1,100,14.738542835600676,2.3320115432515767,1,1,0,1
115,19,12,0,7.09841565163806,0.40292326966300607,1.014,0,14,0,1,0,0,1,1,100,14.30999722201377,2.265859443135559,1,1,0,1
115,20,12,0,5.9945995079353445,1.692445425968617,1.014,0,14,0,1,0,0,1,1,100,14.234000487439333,3.6849187352880826,1,1,0,1
115,21,155,0.05,102.58181938901544,-1.7664117896929383,1.014,0,182,0,1,0,0,1,1,100,159.51588410534896,62.27269591243238,1,1,0,1
116,22,155,25.22,88.1282734759152,-37.9962717727758,1.017,0,182,0,1,0,0,1,1,100,196.52337219775654,107.30209621578688,1,1,0,1
118,23,400,137.4,247.9277461953461,32.14746484998611,1.05,0,471,0,1,0,0,1,1,100,476.5101730264723,94.1421425435691,1,1,0,1
121,24,400,108.2,247.09244458936155,21.643232321366668,1.05,0,471,0,1,0,0,1,1,100,344.9616767466068,60.59764202013941,1,1,0,1
122,25,50,-4.96,19.979153275489807,-7.073687721416356,1.05,0,53,0,1,0,0,1,1,100,43.76482122577727,8.71872673729901,1,1,0,1
122,26,50,-4.96,15.324976926296948,-10.70836770469323,1.05,0,53,0,1,0,0,1,1,100,54.33722861343995,17.159505102317787,1,1,0,1
122,27,50,-4.96,16.63591861203313,-8.307367431838063,1.05,0,53,0,1,0,0,1,1,100,56.80274671874941,17.59265411412344,1,1,0,1
122,28,50,-4.96,17.11425439119339,-2.4195013226009863,1.05,0,53,0,1,0,0,1,1,100,56.38580712722614,15.711323108989738,1,1,0,1
122,29,50,-4.96,16.324266510456802,-10.435686135385183,1.05,0,53,0,1,0,0,1,1,100,58.067790120840066,13.570134218316518,1,1,0,1
122,30,50,-4.96,14.559252261370421,-12.285477470234035,1.05,0,53,0,1,0,0,1,1,100,55.17282114829868,10.852391150900052,1,1,0,1
123,31,155,31.79,56.232980620115995,-44.74651944683863,1.05,0,182,0,1,0,0,1,1,100,123.66641725040971,25.4380162944435,1,1,0,1
123,32,155,31.79,70.78849671036005,-84.71267479332164,1.05,0,182,0,1,0,0,1,1,100,112.19834952522069,5.042887830198751,1,1,0,1
123,33,350,71.78,154.67321949312463,-20.21087605273351,1.05,0,412,0,1,0,0,1,1,100,259.53914798097685,106.53946364903825,1,1,0,1
201,34,10,0,12.803433640394362,1.3502772068604845,1.035,0,24,0,1,0,0,1,1,100,24.206796495243907,19.7809886433091,1,1,0,1
201,35,10,0,10.61688816640526,-1.9183479328639805,1.035,0,24,0,1,0,0,1,1,100,17.53957963269204,12.442554743541406,1,1,0,1
201,36,76,14.1,25.356688428204507,-17.282827633200213,1.035,0,89,0,1,0,0,1,1,100,78.26861421652139,4.001807754263282,1,1,0,1
201,37,76,14.1,29.760937908198684,-22.001608552178368,1.035,0,89,0,1,0,0,1,1,100,71.18924950454384,11.164189080037175,1,1,0,1
202,38,10,0,8.440621575340629,0.8518824144266555,1.035,0,24,0,1,0,0,1,1,100,24.892296127043664,19.492415158143267,1,1,0,1
202,39,10,0,11.696756016928703,3.536485629156232,1.035,0,24,0,1,0,0,1,1,100,23.449481703341007,18.394296661093833,1,1,0,1
202,40,76,7,27.22349905455485,-35.11711627873592,1.035,0,89,0,1,0,0,1,1,100,68.16083844862878,1.7903155245631837,1,1,0,1
202,41,76,7,29.97678901394829,-31.583472658181563,1.035,0,89,0,1,0,0,1,1,100,92.01578742656856,39.1266968466714,1,1,0,1
207,42,80,17.2,42.67139142472296,-26.08186664432288,1.025,0,118,0,1,0,0,1,1,100,104.08172308001666,36.89473980921319,1,1,0,1
207,43,80,17.2,54.84790132753551,-19.368549037724733,1.025,0,118,0,1,0,0,1,1,100,108.63637974951416,45.944587093545124,1,1,0,1
207,44,80,17.2,73.32314585801214,10.313834773376584,1.025,0,118,0,1,0,0,1,1,100,95.08027791976929,39.425040945643566,1,1,0,1
213,45,95.1,40.7,58.28218088671565,-39.00511782243848,1.02,0,232,0,1,0,0,1,1,100,139.0280747965444,16.946162945982067,1,1,0,1
213,46,95.1,40.7,58.94287113845348,-1.6419994086027145,1.02,0,232,0,1,0,0,1,1,100,192.020738815004,50.8706351079,1,1,0,1
213,47,95.1,40.7,94.5423277579248,9.52804646641016,1.02,0,232,0,1,0,0,1,1,100,197.50359282926658,70.07176096543438,1,1,0,1
214,48,0,13.68,143.26635424047706,-65.34271433949473,0.98,0,100,0,1,0,0,1,1,100,0.0,0.0,1,1,0,1
215,49,12,0,5.269648017827421,0.4057725895196205,1.014,0,14,0,1,0,0,1,1,100,8.60078671015799,7.717932967695798,1,1,0,1
215,50,12,0,4.219908708147704,-1.4786610871553432,1.014,0,14,0,1,0,0,1,1,100,10.326948476582764,1.4251774124801155,1,1,0,1
215,51,12,0,5.986157392524182,-1.782330643851311,1.014,0,14,0,1,0,0,1,1,100,11.542991339229047,4.498140447847546,1,1,0,1
215,52,12,0,6.05165527034551,0.5688710368238397,1.014,0,14,0,1,0,0,1,1,100,14.445650544762612,2.43667333558202,1,1,0,1
215,53,12,0,7.477330634370446,3.0449074884876612,1.014,0,14,0,1,0,0,1,1,100,10.552520093880595,0.18274310778826575,1,1,0,1
215,54,155,0.048,88.19467654451728,-63.6739787873812,1.014,0,182,0,1,0,0,1,1,100,169.4241829942912,40.890240997739596,1,1,0,1
216,55,155,25.22,58.117603022605174,-84.79454054683447,1.017,0,182,0,1,0,0,1,1,100,115.08984058350325,112.77779080799533,1,1,0,1
218,56,400,137.4,247.60512495413423,38.3833909756504,1.05,0,471,0,1,0,0,1,1,100,305.877896361053,65.0089255021885,1,1,0,1
221,57,400,108.2,190.43342794291672,-122.49708561459559,1.05,0,471,0,1,0,0,1,1,100,496.6024651937187,176.10182046424598,1,1,0,1
222,58,50,-4.96,16.46205483749509,-4.344940554816276,1.05,0,53,0,1,0,0,1,1,100,35.24674862390384,15.266044056764562,1,1,0,1
222,59,50,-4.96,13.93102477863431,-18.13182383412495,1.05,0,53,0,1,0,0,1,1,100,58.61216327175498,14.846060404088348,1,1,0,1
222,60,50,-4.96,18.631878440082073,-10.203931961487978,1.05,0,53,0,1,0,0,1,1,100,57.521177073940635,31.076748277782805,1,1,0,1
222,61,50,-4.96,17.16843609958887,-9.572536471951754,1.05,0,53,0,1,0,0,1,1,100,58.6184981954284,2.320114471949637,1,1,0,1
222,62,50,-4.96,11.907622975111007,-8.713180234096942,1.05,0,53,0,1,0,0,1,1,100,63.720350251533084,17.55211158189922,1,1,0,1
222,63,50,-4.96,17.711961482465266,-5.071823240164669,1.05,0,53,0,1,0,0,1,1,100,35.947592405136675,2.863017403781686,1,1,0,1
223,64,155,31.79,84.46595630794764,-55.66899093380198,1.05,0,182,0,1,0,0,1,1,100,183.1406831087079,82.36701877320884,1,1,0,1
223,65,155,31.79,94.39261939004064,-50.41616915073246,1.05,0,182,0,1,0,0,1,1,100,170.96503462037072,64.89751484876034,1,1,0,1
223,66,350,71.78,192.27362937759608,41.76562761422247,1.05,0,412,0,1,0,0,1,1,100,413.4128899965435,206.1405281093903,1,1,0,1
301,67,10,0,11.912822325248271,4.442110592499375,1.035,0,24,0,1,0,0,1,1,100,19.40921486541629,15.664438633602114,1,1,0,1
301,68,10,0,12.738649286329746,5.371543364133686,1.035,0,24,0,1,0,0,1,1,100,20.30317048728466,17.287665420649574,1,1,0,1
301,69,76,14.1,37.40310748061165,-8.334438509773463,1.035,0,89,0,1,0,0,1,1,100,73.42202488463371,9.976212083064013,1,1,0,1
301,70,76,14.1,32.140706453472376,-34.38904151436873,1.035,0,89,0,1,0,0,1,1,100,74.62639976646751,31.149181688688707,1,1,0,1
302,71,10,0,12.358420804608613,2.230412825010717,1.035,0,24,0,1,0,0,1,1,100,23.42115594446659,18.36895831719972,1,1,0,1
302,72,10,0,9.00116455880925,0.3089707517065108,1.035,0,24,0,1,0,0,1,1,100,22.453921056352556,18.88045890378766,1,1,0,1
302,73,76,7,25.08705593040213,-20.4951649075374,1.035,0,89,0,1,0,0,1,1,100,80.45131898205727,10.374263351224371,1,1,0,1
302,74,76,7,27.517253839876503,-39.256881057750434,1.035,0,89,0,1,0,0,1,1,100,69.48624779991806,21.424303500279798,1,1,0,1
307,75,80,17.2,54.704594403505325,11.573831736110158,1.025,0,118,0,1,0,0,1,1,100,77.02141711954027,21.11101163784042,1,1,0,1
307,76,80,17.2,70.84157901071012,6.034076546318829,1.025,0,118,0,1,0,0,1,1,100,113.18060036282986,40.20746775320731,1,1,0,1
307,77,80,17.2,76.79018172807992,24.22863492742181,1.025,0,118,0,1,0,0,1,1,100,111.00573672913015,38.61470586853102,1,1,0,1
313,78,95.1,40.7,77.65016037970781,2.8785622604191303,1.02,0,232,0,1,0,0,1,1,100,212.4492235755082,109.79005188440436,1,1,0,1
313,79,95.1,40.7,57.02386922016739,-32.22926558554173,1.02,0,232,0,1,0,0,1,1,100,239.77811693032274,121.32569889224834,1,1,0,1
313,80,95.1,40.7,87.72937282547355,4.082272544503212,1.02,0,232,0,1,0,0,1,1,100,252.2215360362083,90.41075397514044,1,1,0,1
314,81,0,13.68,146.42574813216925,-140.08724068524316,0.98,0,100,0,1,0,0,1,1,100,0.0,0.0,1,1,0,1
315,82,12,0,4.5850915987975895,-3.03868862343952,1.014,0,14,0,1,0,0,1,1,100,15.183116004243495,3.153926276788118,1,1,0,1
315,83,12,0,6.074508859589695,-0.48553596278652567,1.014,0,14,0,1,0,0,1,1,100,10.428674213960768,0.19950436837400432,1,1,0,1
315,84,12,0,5.464218513295055,-0.9388333498500288,1.014,0,14,0,1,0,0,1,1,100,9.344743775948881,0.3333773443847896,1,1,0,1
315,85,12,0,5.461540596652776,-1.6026046053506438,1.014,0,14,0,1,0,0,1,1,100,12.687855785898863,3.7622059617564076,1,1,0,1
315,86,12,0,5.9445733593776815,1.143884579557925,1.014,0,14,0,1,0,0,1,1,100,13.317167087830605,3.159420843310656,1,1,0,1
315,87,155,0.048,81.78222948685288,-55.69834276055917,1.014,0,182,0,1,0,0,1,1,100,145.6908110883087,53.69010997932638,1,1,0,1
316,88,155,25.22,62.22657957300544,-77.17896746145561,1.017,0,182,0,1,0,0,1,1,100,129.44952506409027,3.1468490222818133,1,1,0,1
318,89,400,137.4,231.16214517503977,16.64069112157449,1.05,0,471,0,1,0,0,1,1,100,318.3526531234383,96.91007168963546,1,1,0,1
321,90,400,108.2,175.72947276756167,-141.40322035411373,1.05,0,471,0,1,0,0,1,1,100,374.95478101074696,35.47431927639991,1,1,0,1
322,91,50,-4.96,14.771616345643997,-5.855806921981275,1.05,0,53,0,1,0,0,1,1,100,59.99798407312482,15.448858193121843,1,1,0,1
322,92,50,-4.96,14.94089272916317,-9.543047297652812,1.05,0,53,0,1,0,0,1,1,100,46.69925784924999,1.3607018301263452,1,1,0,1
322,93,50,-4.96,18.600604043900965,-11.489304203726352,1.05,0,53,0,1,0,0,1,1,100,39.482919292058796,15.384542384157628,1,1,0,1
322,94,50,-4.96,13.842094455659389,-5.959016409888864,1.05,0,53,0,1,0,0,1,1,100,50.297059398144484,46.63523366779479,1,1,0,1
322,95,50,-4.96,13.385954029858112,-12.645165323186667,1.05,0,53,0,1,0,0,1,1,100,61.40716539230198,0.5075541674159467,1,1,0,1
322,96,50,-4.96,15.507051467895508,-12.9106466348283,1.05,0,53,0,1,0,0,1,1,100,39.873015314806246,10.377438450799357,1,1,0,1
323,97,155,31.79,84.34198270738125,-14.374790157657102,1.05,0,182,0,1,0,0,1,1,100,178.24343165988103,54.678081510402265,1,1,0,1
323,98,155,31.79,91.04757283627987,-34.62586486712098,1.05,0,182,0,1,0,0,1,1,100,154.97318199533038,82.56842596684582,1,1,0,1
323,99,350,71.78,169.16306474944577,0.9436724835541099,1.05,0,412,0,1,0,0,1,1,100,255.98347141174597,26.44012372614816,1,1,0,1
0 / END OF GENERATOR DATA, BEGIN BRANCH DATA
101,102,1,0.003,0.014,0.461,210.0,231.6,240.0,0,0,0,0,1,1,0,1,1
101,103,1,0.055,0.211,0.057,210.0,249.6,264.0,0,0,0,0,1,1,0,1,1
101,105,1,0.022,0.085,0.023,210.0,249.6,264.0,0,0,0,0,1,1,0,1,1
102,104,1,0.033,0.127,0.034,210.0,249.6,264.0,0,0,0,0,1,1,0,1,1
102,106,1,0.05,0.192,0.052,210.0,249.6,264.0,0,0,0,0,1,1,0,1,1
103,109,1,0.031,0.119,0.032,210.0,249.6,264.0,0,0,0,0,1,1,0,1,1
104,109,1,0.027,0.104,0.028,210.0,249.6,264.0,0,0,0,0,1,1,0,1,1
105,110,1,0.023,0.088,0.024,210.0,249.6,264.0,0,0,0,0,1,1,0,1,1
106,110,1,0.014,0.061,2.459,210.0,231.6,240.0,0,0,0,0,1,1,0,1,1
107,108,1,0.016,0.061,0.017,210.0,249.6,264.0,0,0,0,0,1,1,0,1,1
107,203,1,0.042,0.161,0.044,210.0,249.6,264.0,0,0,0,0,1,1,0,1,1
108,109,1,0.043,0.165,0.045,210.0,249.6,264.0,0,0,0,0,1,1,0,1,1
108,110,1,0.043,0.165,0.045,210.0,249.6,264.0,0,0,0,0,1,1,0,1,1
111,113,1,0.006,0.048,0.1,600.0,720.0,750.0,0,0,0,0,1,1,0,1,1
111,114,1,0.005,0.042,0.088,600.0,720.0,750.0,0,0,0,0,1,1,0,1,1
112,113,1,0.006,0.048,0.1,600.0,720.0,750.0,0,0,0,0,1,1,0,1,1
112,123,1,0.012,0.097,0.203,600.0,720.0,750.0,0,0,0,0,1,1,0,1,1
113,123,1,0.011,0.087,0.182,600.0,720.0,750.0,0,0,0,0,1,1,0,1,1
113,215,1,0.01,0.075,0.158,600.0,720.0,750.0,0,0,0,0,1,1,0,1,1
114,116,1,0.005,0.059,0.082,600.0,720.0,750.0,0,0,0,0,1,1,0,1,1
115,116,1,0.002,0.017,0.036,600.0,720.0,750.0,0,0,0,0,1,1,0,1,1
115,121,1,0.006,0.049,0.103,600.0,720.0,750.0,0,0,0,0,1,1,0,1,1
115,121,2,0.006,0.049,0.103,600.0,720.0,750.0,0,0,0,0,1,1,0,1,1
115,124,1,0.007,0.052,0.109,600.0,720.0,750.0,0,0,0,0,1,1,0,1,1
116,117,1,0.003,0.026,0.055,600.0,720.0,750.0,0,0,0,0,1,1,0,1,1
116,119,1,0.003,0.023,0.049,600.0,720.0,750.0,0,0,0,0,1,1,0,1,1
117,118,1,0.002,0.014,0.03,600.0,720.0,750.0,0,0,0,0,1,1,0,1,1
117,122,1,0.014,0.105,0.221,600.0,720.0,750.0,0,0,0,0,1,1,0,1,1
118,121,1,0.003,0.026,0.055,600.0,720.0,750.0,0,0,0,0,1,1,0,1,1
118,121,2,0.003,0.026,0.055,600.0,720.0,750.0,0,0,0,0,1,1,0,1,1
119,120,1,0.005,0.04,0.083,600.0,720.0,750.0,0,0,0,0,1,1,0,1,1
119,120,2,0.005,0.04,0.083,600.0,720.0,750.0,0,0,0,0,1,1,0,1,1
120,123,1,0.003,0.022,0.046,600.0,720.0,750.0,0,0,0,0,1,1,0,1,1
120,123,2,0.003,0.022,0.046,600.0,720.0,750.0,0,0,0,0,1,1,0,1,1
121,122,1,0.009,0.068,0.142,600.0,720.0,750.0,0,0,0,0,1,1,0,1,1
123,217,1,0.01,0.074,0.155,600.0,720.0,750.0,0,0,0,0,1,1,0,1,1
201,202,1,0.003,0.014,0.461,210.0,231.6,240.0,0,0,0,0,1,1,0,1,1
201,203,1,0.055,0.211,0.057,210.0,249.6,264.0,0,0,0,0,1,1,0,1,1
201,205,1,0.022,0.085,0.023,210.0,249.6,264.0,0,0,0,0,1,1,0,1,1
202,204,1,0.033,0.127,0.034,210.0,249.6,264.0,0,0,0,0,1,1,0,1,1
202,206,1,0.05,0.192,0.052,210.0,249.6,264.0,0,0,0,0,1,1,0,1,1
203,209,1,0.031,0.119,0.032,210.0,249.6,264.0,0,0,0,0,1,1,0,1,1
204,209,1,0.027,0.104,0.028,210.0,249.6,264.0,0,0,0,0,1,1,0,1,1
205,210,1,0.023,0.088,0.024,210.0,249.6,264.0,0,0,0,0,1,1,0,1,1
206,210,1,0.014,0.061,2.459,210.0,231.6,240.0,0,0,0,0,1,1,0,1,1
207,208,1,0.016,0.061,0.017,210.0,249.6,264.0,0,0,0,0,1,1,0,1,1
208,209,1,0.043,0.165,0.045,210.0,249.6,264.0,0,0,0,0,1,1,0,1,1
208,210,1,0.043,0.165,0.045,210.0,249.6,264.0,0,0,0,0,1,1,0,1,1
211,213,1,0.006,0.048,0.1,600.0,720.0,750.0,0,0,0,0,1,1,0,1,1
211,214,1,0.005,0.042,0.088,600.0,720.0,750.0,0,0,0,0,1,1,0,1,1
212,213,1,0.006,0.048,0.1,600.0,720.0,750.0,0,0,0,0,1,1,0,1,1
212,223,1,0.012,0.097,0.203,600.0,720.0,750.0,0,0,0,0,1,1,0,1,1
213,223,1,0.011,0.087,0.182,600.0,720.0,750.0,0,0,0,0,1,1,0,1,1
214,216,1,0.005,0.059,0.082,600.0,720.0,750.0,0,0,0,0,1,1,0,1,1
215,216,1,0.002,0.017,0.036,600.0,720.0,750.0,0,0,0,0,1,1,0,1,1
215,221,1,0.006,0.049,0.103,600.0,720.0,750.0,0,0,0,0,1,1,0,1,1
215,221,2,0.006,0.049,0.103,600.0,720.0,750.0,0,0,0,0,1,1,0,1,1
215,224,1,0.007,0.052,0.109,600.0,720.0,750.0,0,0,0,0,1,1,0,1,1
216,217,1,0.003,0.026,0.055,600.0,720.0,750.0,0,0,0,0,1,1,0,1,1
216,219,1,0.003,0.023,0.049,600.0,720.0,750.0,0,0,0,0,1,1,0,1,1
217,218,1,0.002,0.014,0.03,600.0,720.0,750.0,0,0,0,0,1,1,0,1,1
217,222,1,0.014,0.105,0.221,600.0,720.0,750.0,0,0,0,0,1,1,0,1,1
218,221,1,0.003,0.026,0.055,600.0,720.0,750.0,0,0,0,0,1,1,0,1,1
218,221,2,0.003,0.026,0.055,600.0,720.0,750.0,0,0,0,0,1,1,0,1,1
219,220,1,0.005,0.04,0.083,600.0,720.0,750.0,0,0,0,0,1,1,0,1,1
219,220,2,0.005,0.04,0.083,600.0,720.0,750.0,0,0,0,0,1,1,0,1,1
220,223,1,0.003,0.022,0.046,600.0,720.0,750.0,0,0,0,0,1,1,0,1,1
220,223,2,0.003,0.022,0.046,600.0,720.0,750.0,0,0,0,0,1,1,0,1,1
221,222,1,0.009,0.068,0.142,600.0,720.0,750.0,0,0,0,0,1,1,0,1,1
301,302,1,0.003,0.014,0.461,210.0,231.6,240.0,0,0,0,0,1,1,0,1,1
301,303,1,0.055,0.211,0.057,210.0,249.6,264.0,0,0,0,0,1,1,0,1,1
301,305,1,0.022,0.085,0.023,210.0,249.6,264.0,0,0,0,0,1,1,0,1,1
302,304,1,0.033,0.127,0.034,210.0,249.6,264.0,0,0,0,0,1,1,0,1,1
302,306,1,0.05,0.192,0.052,210.0,249.6,264.0,0,0,0,0,1,1,0,1,1
303,309,1,0.031,0.119,0.032,210.0,249.6,264.0,0,0,0,0,1,1,0,1,1
304,309,1,0.027,0.104,0.028,210.0,249.6,264.0,0,0,0,0,1,1,0,1,1
305,310,1,0.023,0.088,0.024,210.0,249.6,264.0,0,0,0,0,1,1,0,1,1
306,310,1,0.014,0.061,2.459,210.0,231.6,240.0,0,0,0,0,1,1,0,1,1
307,308,1,0.016,0.061,0.017,210.0,249.6,264.0,0,0,0,0,1,1,0,1,1
308,309,1,0.043,0.165,0.045,210.0,249.6,264.0,0,0,0,0,1,1,0,1,1
308,310,1,0.043,0.165,0.045,210.0,249.6,264.0,0,0,0,0,1,1,0,1,1
311,313,1,0.006,0.048,0.1,600.0,720.0,750.0,0,0,0,0,1,1,0,1,1
311,314,1,0.005,0.042,0.088,600.0,720.0,750.0,0,0,0,0,1,1,0,1,1
312,313,1,0.006,0.048,0.1,600.0,720.0,750.0,0,0,0,0,1,1,0,1,1
312,323,1,0.012,0.097,0.203,600.0,720.0,750.0,0,0,0,0,1,1,0,1,1
313,323,1,0.011,0.087,0.182,600.0,720.0,750.0,0,0,0,0,1,1,0,1,1
314,316,1,0.005,0.059,0.082,600.0,720.0,750.0,0,0,0,0,1,1,0,1,1
315,316,1,0.002,0.017,0.036,600.0,720.0,750.0,0,0,0,0,1,1,0,1,1
315,321,1,0.006,0.049,0.103,600.0,720.0,750.0,0,0,0,0,1,1,0,1,1
315,321,2,0.006,0.049,0.103,600.0,720.0,750.0,0,0,0,0,1,1,0,1,1
315,324,1,0.007,0.052,0.109,600.0,720.0,750.0,0,0,0,0,1,1,0,1,1
316,317,1,0.003,0.026,0.055,600.0,720.0,750.0,0,0,0,0,1,1,0,1,1
316,319,1,0.003,0.023,0.049,600.0,720.0,750.0,0,0,0,0,1,1,0,1,1
317,318,1,0.002,0.014,0.03,600.0,720.0,750.0,0,0,0,0,1,1,0,1,1
317,322,1,0.014,0.105,0.221,600.0,720.0,750.0,0,0,0,0,1,1,0,1,1
318,223,1,0.013,0.104,0.218,600.0,720.0,750.0,0,0,0,0,1,1,0,1,1
318,321,1,0.003,0.026,0.055,600.0,720.0,750.0,0,0,0,0,1,1,0,1,1
318,321,2,0.003,0.026,0.055,600.0,720.0,750.0,0,0,0,0,1,1,0,1,1
319,320,1,0.005,0.04,0.083,600.0,720.0,750.0,0,0,0,0,1,1,0,1,1
319,320,2,0.005,0.04,0.083,600.0,720.0,750.0,0,0,0,0,1,1,0,1,1
320,323,1,0.003,0.022,0.046,600.0,720.0,750.0,0,0,0,0,1,1,0,1,1
320,323,2,0.003,0.022,0.046,600.0,720.0,750.0,0,0,0,0,1,1,0,1,1
321,322,1,0.009,0.068,0.142,600.0,720.0,750.0,0,0,0,0,1,1,0,1,1
323,325,1,0,0.009,0,866.4,1071.6,1071.6,0,0,0,0,1,1,0,1,1
325,121,1,0.012,0.097,0.203,600.0,720.0,750.0,0,0,0,0,1,1,0,1,1
0 / END OF BRANCH DATA, BEGIN TRANSFORMER DATA
  103 ,  124 , 0,  1 , 1, 1, 1, 0, 0, 2, '            ',  1 , 1, 1
   0.002000 ,  0.084000 ,  100.000000
   1.015000 , 0,  0.000000 ,  400.000000 ,  510.000000 ,  600.000000 , 0, 0,  1.10 ,  0.90 ,  1.10 ,  0.90 , 33, 0, 0, 0
   1.000000, 0
  109 ,  111 , 0,  1 , 1, 1, 1, 0, 0, 2, '            ',  1 , 1, 1
   0.002000 ,  0.084000 ,  100.000000
   1.030000 , 0,  0.000000 ,  400.000000 ,  510.000000 ,  600.000000 , 0, 0,  1.10 ,  0.90 ,  1.10 ,  0.90 , 33, 0, 0, 0
   1.000000, 0
  109 ,  112 , 0,  1 , 1, 1, 1, 0, 0, 2, '            ',  1 , 1, 1
   0.002000 ,  0.084000 ,  100.000000
   1.030000 , 0,  0.000000 ,  400.000000 ,  510.000000 ,  600.000000 , 0, 0,  1.10 ,  0.90 ,  1.10 ,  0.90 , 33, 0, 0, 0
   1.000000, 0
  110 ,  111 , 0,  1 , 1, 1, 1, 0, 0, 2, '            ',  1 , 1, 1
   0.002000 ,  0.084000 ,  100.000000
   1.015000 , 0,  0.000000 ,  400.000000 ,  510.000000 ,  600.000000 , 0, 0,  1.10 ,  0.90 ,  1.10 ,  0.90 , 33, 0, 0, 0
   1.000000, 0
  110 ,  112 , 0,  1 , 1, 1, 1, 0, 0, 2, '            ',  1 , 1, 1
   0.002000 ,  0.084000 ,  100.000000
   1.015000 , 0,  0.000000 ,  400.000000 ,  510.000000 ,  600.000000 , 0, 0,  1.10 ,  0.90 ,  1.10 ,  0.90 , 33, 0, 0, 0
   1.000000, 0
  203 ,  224 , 0,  1 , 1, 1, 1, 0, 0, 2, '            ',  1 , 1, 1
   0.002000 ,  0.084000 ,  100.000000
   1.015000 , 0,  0.000000 ,  400.000000 ,  510.000000 ,  600.000000 , 0, 0,  1.10 ,  0.90 ,  1.10 ,  0.90 , 33, 0, 0, 0
   1.000000, 0
  209 ,  211 , 0,  1 , 1, 1, 1, 0, 0, 2, '            ',  1 , 1, 1
   0.002000 ,  0.084000 ,  100.000000
   1.030000 , 0,  0.000000 ,  400.000000 ,  510.000000 ,  600.000000 , 0, 0,  1.10 ,  0.90 ,  1.10 ,  0.90 , 33, 0, 0, 0
   1.000000, 0
  209 ,  212 , 0,  1 , 1, 1, 1, 0, 0, 2, '            ',  1 , 1, 1
   0.002000 ,  0.084000 ,  100.000000
   1.030000 , 0,  0.000000 ,  400.000000 ,  510.000000 ,  600.000000 , 0, 0,  1.10 ,  0.90 ,  1.10 ,  0.90 , 33, 0, 0, 0
   1.000000, 0
  210 ,  211 , 0,  1 , 1, 1, 1, 0, 0, 2, '            ',  1 , 1, 1
   0.002000 ,  0.084000 ,  100.000000
   1.015000 , 0,  0.000000 ,  400.000000 ,  510.000000 ,  600.000000 , 0, 0,  1.10 ,  0.90 ,  1.10 ,  0.90 , 33, 0, 0, 0
   1.000000, 0
  210 ,  212 , 0,  1 , 1, 1, 1, 0, 0, 2, '            ',  1 , 1, 1
   0.002000 ,  0.084000 ,  100.000000
   1.015000 , 0,  0.000000 ,  400.000000 ,  510.000000 ,  600.000000 , 0, 0,  1.10 ,  0.90 ,  1.10 ,  0.90 , 33, 0, 0, 0
   1.000000, 0
  303 ,  324 , 0,  1 , 1, 1, 1, 0, 0, 2, '            ',  1 , 1, 1
   0.002000 ,  0.084000 ,  100.000000
   1.015000 , 0,  0.000000 ,  400.000000 ,  510.000000 ,  600.000000 , 0, 0,  1.10 ,  0.90 ,  1.10 ,  0.90 , 33, 0, 0, 0
   1.000000, 0
  309 ,  311 , 0,  1 , 1, 1, 1, 0, 0, 2, '            ',  1 , 1, 1
   0.002000 ,  0.084000 ,  100.000000
   1.030000 , 0,  0.000000 ,  400.000000 ,  510.000000 ,  600.000000 , 0, 0,  1.10 ,  0.90 ,  1.10 ,  0.90 , 33, 0, 0, 0
   1.000000, 0
  309 ,  312 , 0,  1 , 1, 1, 1, 0, 0, 2, '            ',  1 , 1, 1
   0.002000 ,  0.084000 ,  100.000000
   1.030000 , 0,  0.000000 ,  400.000000 ,  510.000000 ,  600.000000 , 0, 0,  1.10 ,  0.90 ,  1.10 ,  0.90 , 33, 0, 0, 0
   1.000000, 0
  310 ,  311 , 0,  1 , 1, 1, 1, 0, 0, 2, '            ',  1 , 1, 1
   0.002000 ,  0.084000 ,  100.000000
   1.015000 , 0,  0.000000 ,  400.000000 ,  510.000000 ,  600.000000 , 0, 0,  1.10 ,  0.90 ,  1.10 ,  0.90 , 33, 0, 0, 0
   1.000000, 0
  310 ,  312 , 0,  1 , 1, 1, 1, 0, 0, 2, '            ',  1 , 1, 1
   0.002000 ,  0.084000 ,  100.000000
   1.015000 , 0,  0.000000 ,  400.000000 ,  510.000000 ,  600.000000 , 0, 0,  1.10 ,  0.90 ,  1.10 ,  0.90 , 33, 0, 0, 0
   1.000000, 0
0 / END OF TRANSFORMER DATA, BEGIN AREA DATA
0 / END OF AREA DATA, BEGIN TWO-TERMINAL DC DATA
0 / END OF TWO-TERMINAL DC DATA, BEGIN VSC DC LINE DATA
0 / END OF VSC DC LINE DATA, BEGIN SWITCHED SHUNT DATA
0 / END OF SWITCHED SHUNT DATA, BEGIN IMPEDANCE CORRECTION DATA
0 / END OF IMPEDANCE CORRECTION DATA, BEGIN MULTI-TERMINAL DC DATA
0 / END OF MULTI-TERMINAL DC DATA, BEGIN MULTI-SECTION LINE DATA
0 / END OF MULTI-SECTION LINE DATA, BEGIN ZONE DATA
0 / END OF ZONE DATA, BEGIN INTER-AREA TRANSFER DATA
0 / END OF INTER-AREA TRANSFER DATA, BEGIN OWNER DATA
0 / END OF OWNER DATA, BEGIN FACTS CONTROL DEVICE DATA
0 / END OF FACTS CONTROL DEVICE DATA
0 / END OF SWITCHED SHUNT DATA, BEGIN GNE DATA
0 / END OF GNE DATA, BEGIN INDUCTION MACHINE DATA
0 / END OF INDUCTION MACHINE DATA
Q 
